Circuit: * C:\Users\User\Repos\Wet-DryPenguins\Simulaciones\Test baterías\Test_baterias.asc

Warning: Multiple definitions of model "2scr375p" Type: BJT
Warning: Multiple definitions of model "bc857b" Type: BJT
Warning: Multiple definitions of model "bc847c" Type: BJT
Warning: Multiple definitions of model "bc847b" Type: BJT
Direct Newton iteration for .op point succeeded.

Date: Fri Jul  7 07:51:11 2023
Total elapsed time: 0.277 seconds.

tnom = 27
temp = 27
method = modified trap
totiter = 10702
traniter = 10667
tranpoints = 2911
accept = 2424
rejected = 487
matrix size = 42
fillins = 10
solver = Normal
Avg thread counts: 1.1/1.2/1.2/1.1
Matrix Compiler1: 2.42 KB object code size  0.9/1.3/[0.6]
Matrix Compiler2: 3.19 KB object code size  0.9/1.0/[0.4]

